xrun(64): 20.09-s001: (c) Copyright 1995-2020 Cadence Design Systems, Inc.
TOOL:	xrun(64)	20.09-s001: Started on Nov 19, 2024 at 06:14:21 EST
xrun
	rc_filter.vams
	../sim.scs
	-ams
Recompiling... reason: file './rc_filter.vams' is newer than expected.
	expected: Tue Nov 19 06:05:05 2024
	actual:   Tue Nov 19 06:14:16 2024
file: rc_filter.vams
	module worklib.rc_filter:vams
		errors: 0, warnings: 0
		Caching library 'worklib' ....... Done
	Elaborating the design hierarchy:
	Top level design units:
		resistor
		capacitor
		rc_filter
	Discipline resolution Pass...
	Building instance overlay tables: .................... Done
	Building instance specific data structures.
	Loading native compiled code:     .................... Done
	Design hierarchy summary:
		       Instances  Unique
		Modules:       3       3
		Interconnect:  7       -
	Writing initial simulation snapshot: worklib.resistor:vams
Loading snapshot worklib.resistor:vams .................... Done
	Starting analog simulation engine...
AMSD Flexible Release Matrix --- using Spectre from installation:
    /home/cadence/install//SPECTRE201/bin/spectre
AMSD: Using spectre solver with arguments: -ahdllibdir xcelium.d/AMSD/ahdlSimDB.
xcelium> source /home/cadence/install/XCELIUM2009/tools/xcelium/files/xmsimrc
xcelium> source /home/cadence/install/XCELIUM2009/tools/xcelium/files/amsrc
xcelium> run

Spectre (R) Circuit Simulator
Version 20.1.0.068 64bit -- 23 Sep 2020
Copyright (C) 1989-2020 Cadence Design Systems, Inc. All rights reserved worldwide. Cadence and Spectre are registered trademarks of Cadence Design Systems, Inc. All others are the property of their respective holders.

Includes RSA BSAFE(R) Cryptographic or Security Protocol Software from RSA Security, Inc.

User: alpha   Host: alpha   HostID: A8C0017A   PID: 22002
Memory  available: 4.6431 GB  physical: 7.8427 GB
Linux   : Red Hat Enterprise Linux Server release 7.9 (Maipo)
CPU Type: Intel(R) Core(TM) i5-6300HQ CPU @ 2.30GHz
        Socket: Processors [Frequency]
        0:       0 [2977.3],  1 [2987.4],  2 [2990.0],  3 [2897.9]
        
System load averages (1min, 5min, 15min) : 12.0 %, 3.8 %, 3.8 %


Simulating `sim.ams' on alpha at 6:14:28 AM, Tue Nov 19, 2024 (process id: 22002).
Current working directory: /home/alpha/Documents/nidhi_wreal/RC_filter
Command line:
    /home/cadence/install/SPECTRE201/tools.lnx86/bin/spectre -64  \
        sim.ams +config  \
        /home/cadence/install/SPECTRE201/tools.lnx86/spectre/etc/configs/ams.cfg  \
        -ahdllibdir xcelium.d/AMSD/ahdlSimDB  \
        +ams_control=xcelium.d/AMSD/ams_ctrl/ams_ctrl_21384_alpha
Loading /home/cadence/install/SPECTRE201/tools.lnx86/cmi/lib/64bit/5.0/libinfineon_sh.so ...
Loading /home/cadence/install/SPECTRE201/tools.lnx86/cmi/lib/64bit/5.0/libphilips_o_sh.so ...
Loading /home/cadence/install/SPECTRE201/tools.lnx86/cmi/lib/64bit/5.0/libphilips_sh.so ...
Loading /home/cadence/install/SPECTRE201/tools.lnx86/cmi/lib/64bit/5.0/libsparam_sh.so ...
Loading /home/cadence/install/SPECTRE201/tools.lnx86/cmi/lib/64bit/5.0/libstmodels_sh.so ...
Reading file:  /home/alpha/Documents/nidhi_wreal/RC_filter/sim.ams

Notice from spectre during circuit read-in.
    Configuration file used: `/home/cadence/install/SPECTRE201/tools.lnx86/spectre/etc/configs/ams.cfg'.

Reading file:  /home/cadence/install/SPECTRE201/tools.lnx86/spectre/etc/configs/spectre.cfg
Reading file:  /home/alpha/Documents/nidhi_wreal/RC_filter/xcelium.d/AMSD/ahdlSimDB/worklib__resistor__vams__0x10000001_behavioral.flex.va
Reading file:  /home/cadence/install/SPECTRE201/tools.lnx86/spectre/etc/ahdl/constants.vams
Reading file:  /home/alpha/Documents/nidhi_wreal/RC_filter/xcelium.d/AMSD/ahdlSimDB/worklib__capacitor__vams__0x10000001_behavioral.flex.va
Reading file:  /home/alpha/Documents/nidhi_wreal/RC_filter/xcelium.d/AMSD/ahdlSimDB/worklib__rc_filter__vams__0x10000001_behavioral.flex.va
Reading file:  /home/alpha/Documents/nidhi_wreal/sim.scs
Reading file:  /home/cadence/install/SPECTRE201/tools.lnx86/spectre/etc/configs/ams.cfg
Time for NDB Parsing: CPU = 211.346 ms, elapsed = 179.609 ms.
Time accumulated: CPU = 266.019 ms, elapsed = 179.619 ms.
Peak resident memory used = 73.7 Mbytes.

Existing shared object for module worklib__resistor__vams__0x10000001_behavioral is up to date.
Installed compiled interface for worklib__resistor__vams__0x10000001_behavioral.
Existing shared object for module worklib__capacitor__vams__0x10000001_behavioral is up to date.
Installed compiled interface for worklib__capacitor__vams__0x10000001_behavioral.
Opening directory xcelium.d/AMSD/ahdlSimDB (775)
Created directory xcelium.d/AMSD/ahdlSimDB/8d687070b3f7ce9cd515acc589dd438c.worklib__rc_filter__vams__0x10000001_behavioral.ahdlcmi/ (775)
Created directory xcelium.d/AMSD/ahdlSimDB/8d687070b3f7ce9cd515acc589dd438c.worklib__rc_filter__vams__0x10000001_behavioral.ahdlcmi/Linux-64/ (775)
Compiling ahdlcmi module library for worklib__rc_filter__vams__0x10000001_behavioral.
Finished compilation in 722 ms (elapsed) for worklib__rc_filter__vams__0x10000001_behavioral.
Installed compiled interface for worklib__rc_filter__vams__0x10000001_behavioral.

Fatal error found by spectre in `worklib__rc_filter__vams__0x10000001', during circuit read-in.
    FATAL (SFE-82): "/home/alpha/Documents/nidhi_wreal/RC_filter/rc_filter.vams" 18: `reg1': An instance of `resistor', port name `p' not found.
    FATAL (SFE-82): "/home/alpha/Documents/nidhi_wreal/RC_filter/rc_filter.vams" 18: `reg1': An instance of `resistor', port name `n' not found.

Time for Elaboration: CPU = 789.655 ms, elapsed = 755.357 ms.
Time accumulated: CPU = 1.0559 s, elapsed = 935.089 ms.
Peak resident memory used = 82.7 Mbytes.


Aggregate audit (6:14:29 AM, Tue Nov 19, 2024):
Time used: CPU = 1.06 s, elapsed = 1.06 s, util. = 100%.
Time spent in licensing: elapsed = 61.4 ms, percentage of total = 5.81%.
Peak memory used = 82.9 Mbytes.
Simulation started at: 6:14:28 AM, Tue Nov 19, 2024, ended at: 6:14:29 AM, Tue Nov 19, 2024, with elapsed time (wall clock): 1.06 s.
spectre completes with 2 errors, 0 warnings, and 1 notice.
spectre terminated prematurely due to fatal error.
xmsim: *E,RNALER: Simulation terminated due to analog error.
Memory Usage - Current physical: 62.9M, Current virtual: 415.7M
CPU Usage - 0.1s system + 1.0s user = 1.1s total (38.9% cpu)
xcelium> exit
TOOL:	xrun(64)	20.09-s001: Exiting on Nov 19, 2024 at 06:14:29 EST  (total: 00:00:08)
